Geom Title=161 Arbogne 2015
Program Version=4.10
Viewing Rectangle= 0 , 1 , 1 , 0 

River Reach=Arbogne         ,unique          
Reach XY= 3 
       0.1173469       0.8979592       0.7959184       0.1938776
       0.7933673       0.1938776
Rch Text X Y=0.286352,0.7219388
Reverse River Text= 0 

Type RM Length L Ch R = 1 ,2132.97 ,14.51,14.51,14.51
BEGIN DESCRIPTION:
100
END DESCRIPTION:
Node Last Edited Time=mars.08.2016 08:26:33
#Sta/Elev= 10 
       0  443.34    2.71  442.33    3.37  441.76    4.19  441.39    4.93  440.91
    5.78  440.83    6.95  440.82    7.59  441.48   10.22  442.37   14.25  443.47
#Mann= 3 , 0 , 0 
       0     .05       0    4.19     .03       0    7.59     .05       0
Levee=-1,0,443.34,-1,14.25,443.47,,
Bank Sta=4.19,7.59
XS Rating Curve= 0 ,0
Exp/Cntr=0.3,0.1

Type RM Length L Ch R = 1 ,2118.46*,14.51,14.51,14.51
Node Last Edited Time=mars.08.2016 08:51:56
#Sta/Elev= 12 
       0 443.055   2.041  442.12   2.538  441.73   3.155 441.415   3.778 441.087
    3.97 441.026   4.906 440.967   6.195 440.935   7.161 441.158    7.66 441.455
   9.589 442.283  12.545  443.42
#Mann= 3 , 0 , 0 
       0     .05       0   3.155     .03       0    7.66     .05       0
Levee=-1,0,443.055,-1,12.545,443.42,,
Bank Sta=3.155,7.66
XS Rating Curve= 0 ,0
Exp/Cntr=0.3,0.1

Type RM Length L Ch R = 1 ,2103.96 ,14.66,14.66,14.66
BEGIN DESCRIPTION:
200
END DESCRIPTION:
Node Last Edited Time=mars.08.2016 08:26:33
#Sta/Elev= 7 
       0  442.77    2.12  441.44     2.8  441.15    5.44  441.05    6.95  441.06
    7.73  441.43   10.84  443.37
#Mann= 3 , 0 , 0 
       0     .05       0    2.12     .03       0    7.73     .05       0
Levee=-1,0,442.77,-1,10.84,443.37,,
Bank Sta=2.12,7.73
XS Rating Curve= 0 ,0
Exp/Cntr=0.3,0.1

Type RM Length L Ch R = 1 ,2089.3* ,14.66,14.66,14.66
Node Last Edited Time=mars.08.2016 08:52:04
#Sta/Elev= 8 
       0 442.675   1.955  441.41   2.859  441.23   4.647 441.135    6.37  441.08
    7.26  441.19    7.72  441.43   10.84  443.32
#Mann= 3 , 0 , 0 
       0     .05       0   1.955     .03       0    7.72     .05       0
Levee=-1,0,442.675,-1,10.84,443.32,,
Bank Sta=1.955,7.72
XS Rating Curve= 0 ,0
Exp/Cntr=0.3,0.1

Type RM Length L Ch R = 1 ,2074.64 ,30.3,30.3,30.3
BEGIN DESCRIPTION:
300
END DESCRIPTION:
Node Last Edited Time=mars.08.2016 08:26:33
#Sta/Elev= 6 
       0  442.58    1.79  441.38    5.15  441.17     7.3  441.11    7.71  441.43
   10.84  443.27
#Mann= 3 , 0 , 0 
       0     .05       0    1.79     .03       0    7.71     .05       0
Levee=-1,0,442.58,-1,10.84,443.27,,
Bank Sta=1.79,7.71
XS Rating Curve= 0 ,0
Exp/Cntr=0.3,0.1

Type RM Length L Ch R = 3 ,2049.34 ,,,
BEGIN DESCRIPTION:
pont CFF
END DESCRIPTION:
Node Last Edited Time=juin.23.2015 13:21:27
Bridge Culvert--1,0,-1,-1, 0 
Deck Dist Width WeirC Skew NumUp NumDn MinLoCord MaxHiCord MaxSubmerge Is_Ogee
25,5,1.4,0, 2, 2, , , 0.95, 0, 0,0,,
       0      11
  443.28  443.28
  442.28  442.28
       0      11
  443.24  443.24
  442.24  442.24
BR Coef=-1 , 0 , 0 ,, 0 ,,,0.8,-1,,0,
WSPro=,,,, 1 ,,,, 0 ,,,, 0 ,,,,-1 ,-1 ,-1 , 0 , 0 , 0 , 0 , 0 
BC Design=,, 0 ,, 0 ,,,,,,
BC Use User HTab Curves=0
BC User HTab FreeFlow(D)= 0 

Type RM Length L Ch R = 1 ,2044.34 ,4.21,4.21,4.21
BEGIN DESCRIPTION:
300 aval pont CFF
END DESCRIPTION:
Node Last Edited Time=mars.08.2016 08:26:33
#Sta/Elev= 6 
       0  442.58    1.79  441.38    5.15  441.12     7.3  441.06    7.71  441.43
   10.84  443.27
#Mann= 3 , 0 , 0 
       0     .05       0    1.79     .03       0    7.71     .05       0
Levee=-1,0,442.58,-1,10.84,443.27,,
Bank Sta=1.79,7.71
XS Rating Curve= 0 ,0
Exp/Cntr=0.3,0.1

Type RM Length L Ch R = 1 ,2040.13 ,19.058,19.058,19.058
BEGIN DESCRIPTION:
400
END DESCRIPTION:
Node Last Edited Time=mars.08.2016 08:26:33
#Sta/Elev= 10 
       0  442.86   11.81  441.23   12.87  441.06   13.72     441   15.39  441.06
    15.9  441.62   16.27  441.87   17.78  442.08   18.86  442.45   19.64  442.67
#Mann= 3 , 0 , 0 
       0     .05       0   11.81     .03       0    15.9     .05       0
Levee=-1,0,442.86,-1,19.64,442.67,,
Bank Sta=11.81,15.9
XS Rating Curve= 0 ,0
Exp/Cntr=0.3,0.1

Type RM Length L Ch R = 1 ,2021.07*,19.058,19.058,19.058
Node Last Edited Time=mars.08.2016 08:52:50
#Sta/Elev= 17 
       0 442.797   2.762 442.277   5.122 441.945  10.888 441.238  11.726 441.041
  12.398  440.94  13.255 440.978  14.213 441.024  14.242 441.027    14.4 441.158
  14.805 441.562  15.349 441.765  16.933  441.92   17.57 441.965  19.121 442.236
  19.158  442.25  20.305 442.643
#Mann= 3 , 0 , 0 
       0     .05       0  10.888     .03       0  14.805     .05       0
Levee=-1,0,442.7975,-1,20.305,442.6425,,
Bank Sta=10.888,14.805
XS Rating Curve= 0 ,0
Exp/Cntr=0.3,0.1

Type RM Length L Ch R = 1 ,2002.01*,19.058,19.058,19.058
Node Last Edited Time=mars.08.2016 08:52:50
#Sta/Elev= 17 
       0 442.735   2.528 442.108   4.688 441.797   9.965 441.245  10.581 441.021
  11.075  440.88  12.013 440.929  13.062  440.99  13.094 440.995  13.267 441.099
   13.71 441.505  14.428 441.659  16.518  441.82  17.359  441.85  19.408 442.031
  19.456  442.05   20.97 442.615
#Mann= 3 , 0 , 0 
       0     .05       0   9.965     .03       0   13.71     .05       0
Levee=-1,0,442.735,-1,20.97,442.615,,
Bank Sta=9.965,13.71
XS Rating Curve= 0 ,0
Exp/Cntr=0.3,0.1

Type RM Length L Ch R = 1 ,1982.95*,19.058,19.058,19.058
Node Last Edited Time=mars.08.2016 08:52:50
#Sta/Elev= 17 
       0 442.672   2.294 441.939   4.254 441.648   9.043 441.253   9.437 441.002
   9.753  440.82  10.772 440.879  11.911 440.955  11.945 440.962  12.133 441.039
  12.615 441.448  13.507 441.554  16.104  441.72  17.149 441.735  19.694 441.825
  19.754 441.849  21.635 442.587
#Mann= 3 , 0 , 0 
       0     .05       0   9.043     .03       0  12.615     .05       0
Levee=-1,0,442.6725,-1,21.635,442.5875,,
Bank Sta=9.043,12.615
XS Rating Curve= 0 ,0
Exp/Cntr=0.3,0.1

Type RM Length L Ch R = 1 ,1963.89 ,16.183,16.183,16.183
BEGIN DESCRIPTION:
500
END DESCRIPTION:
Node Last Edited Time=mars.08.2016 08:26:33
#Sta/Elev= 12 
       0  442.61    2.06  441.77    3.82   441.5    8.12  441.26    8.43  440.76
    9.53  440.83   10.76  440.92      11  440.98   11.52  441.39   15.69  441.62
   19.98  441.62    22.3  442.56
#Mann= 3 , 0 , 0 
       0     .05       0    8.12     .03       0   11.52     .05       0
Levee=-1,0,442.61,-1,22.3,442.56,,
Bank Sta=8.12,11.52
XS Rating Curve= 0 ,0
Exp/Cntr=0.3,0.1

Type RM Length L Ch R = 1 ,1947.70*,16.183,16.183,16.183
Node Last Edited Time=mars.08.2016 08:52:59
#Sta/Elev= 20 
       0 442.547   1.381 442.036   2.388 441.706   3.208 441.558   4.428 441.468
   5.875 441.444   9.413   441.3   9.727 440.623  10.584 440.717  10.919 440.736
   11.12 440.749  12.021 440.896  12.253 440.951  12.513  441.04  13.077  441.42
   16.61 441.557  17.424 441.553  19.004 441.637  20.244 441.732   22.21  442.51
#Mann= 3 , 0 , 0 
       0    .057       0   9.413    .032       0  13.077    .057       0
Levee=-1,0,442.5467,-1,22.21,442.51,,
Bank Sta=9.413,13.077
XS Rating Curve= 0 ,0
Exp/Cntr=0.3,0.1

Type RM Length L Ch R = 1 ,1931.52*,16.183,16.183,16.183
Node Last Edited Time=mars.08.2016 08:52:59
#Sta/Elev= 20 
       0 442.483    1.57 441.948   2.716 441.643   3.649 441.454   5.037 441.437
   6.683 441.457  10.707  441.34  11.023 440.487  11.947 440.623  12.308 440.643
  12.525 440.655  13.495 440.888  13.745 440.981  14.026   441.1  14.633  441.45
  17.529 441.494  18.197 441.487  19.492 441.653  20.509 441.844   22.12  442.46
#Mann= 3 , 0 , 0 
       0    .063       0  10.707    .033       0  14.633    .063       0
Levee=-1,0,442.4833,-1,22.12,442.46,,
Bank Sta=10.707,14.633
XS Rating Curve= 0 ,0
Exp/Cntr=0.3,0.1

Type RM Length L Ch R = 1 ,1915.34 ,17.187,17.187,17.187
BEGIN DESCRIPTION:
600
END DESCRIPTION:
Node Last Edited Time=mars.08.2016 08:26:33
#Sta/Elev= 13 
       0  442.42    1.76  441.86    4.09  441.35    7.49  441.47      12  441.38
   12.32  440.35   13.31  440.53   13.93  440.56   14.97  440.88   16.19  441.48
   18.97  441.42   19.98  441.67   22.03  442.41
#Mann= 3 , 0 , 0 
       0     .07       0      12    .035       0   16.19     .07       0
Levee=-1,0,442.42,-1,22.03,442.41,,
Bank Sta=12,16.19
XS Rating Curve= 0 ,0
Exp/Cntr=0.3,0.1

Type RM Length L Ch R = 1 ,1898.15*,17.187,17.187,17.187
Node Last Edited Time=mars.08.2016 08:53:03
#Sta/Elev= 18 
       0 442.377   1.802 441.804   3.107 441.474   4.187 441.296   7.638 441.299
   7.667 441.305   8.517 441.426  12.283  441.34  12.681 440.869   13.48 440.393
    14.2 440.557   14.65 440.604  15.406 440.863  16.293 441.317  19.021 441.502
  19.148  441.51  20.185 441.756   22.29  442.41
#Mann= 3 , 0 , 0 
       0     .07       0  12.283    .035       0  16.293     .07       0
Levee=-1,0,442.3767,-1,22.29,442.41,,
Bank Sta=12.283,16.293
XS Rating Curve= 0 ,0
Exp/Cntr=0.3,0.1

Type RM Length L Ch R = 1 ,1880.96*,17.187,17.187,17.187
Node Last Edited Time=mars.08.2016 08:53:03
#Sta/Elev= 18 
       0 442.333   1.843 441.748   3.178 441.367   4.283 441.242   7.814  441.13
   7.844 441.139   8.714 441.398  12.567   441.3  13.255 440.699   14.64 440.437
  15.089 440.584  15.371 440.648  15.843 440.846  16.397 441.153  19.195 441.581
  19.326 441.599   20.39 441.841   22.55  442.41
#Mann= 3 , 0 , 0 
       0     .07       0  12.567    .035       0  16.397     .07       0
Levee=-1,0,442.3333,-1,22.55,442.41,,
Bank Sta=12.567,16.397
XS Rating Curve= 0 ,0
Exp/Cntr=0.3,0.1

Type RM Length L Ch R = 1 ,1863.78 ,17.7,17.7,17.7
BEGIN DESCRIPTION:
700
END DESCRIPTION:
Node Last Edited Time=mars.08.2016 08:26:33
#Sta/Elev= 10 
       0  442.29    3.25  441.26    7.99  440.96    8.91  441.37   12.85  441.26
   13.83  440.53    15.8  440.48    16.5  440.99   19.37  441.66   22.81  442.41
#Mann= 3 , 0 , 0 
       0     .07       0   12.85    .035       0    16.5     .07       0
Levee=-1,0,442.29,-1,22.81,442.41,,
Bank Sta=12.85,16.5
XS Rating Curve= 0 ,0
Exp/Cntr=0.3,0.1

Type RM Length L Ch R = 1 ,1846.08*,17.7,17.7,17.7
Node Last Edited Time=mars.08.2016 08:53:09
#Sta/Elev= 23 
       0 442.258   1.969 441.638   3.295 441.183   3.487 441.154   5.044 441.101
   5.716 441.114   6.341  441.06   7.244 440.953   7.695 440.926     8.1 440.939
   9.033  441.32   9.098 441.324  13.028 441.205  13.797 440.591  15.343  440.42
  15.948 440.588  16.146 440.629  16.657 440.849   16.93 441.022  18.995 441.435
  19.541 441.575   21.16 441.971   22.67 442.302
#Mann= 3 , 0 , 0 
       0     .07       0  13.028    .035       0   16.93     .07       0
Levee=-1,0,442.2575,-1,22.67,442.3025,,
Bank Sta=13.028,16.93
XS Rating Curve= 0 ,0
Exp/Cntr=0.3,0.1

Type RM Length L Ch R = 1 ,1828.38*,17.7,17.7,17.7
Node Last Edited Time=mars.08.2016 08:53:09
#Sta/Elev= 23 
       0 442.225   1.996 441.602    3.34 441.107   3.535 441.059   5.113  441.05
   5.794 441.119   6.427  441.05   7.343 440.892     7.8 440.868   8.211 440.919
   9.156  441.27   9.222 441.279  13.205  441.15  13.763 440.652  14.885  440.36
  15.828 440.502  16.137 440.519  16.935 440.796   17.36 441.055   19.22  441.35
  19.711 441.491   21.17 441.894   22.53 442.195
#Mann= 3 , 0 , 0 
       0     .07       0  13.205    .035       0   17.36     .07       0
Levee=-1,0,442.225,-1,22.53,442.195,,
Bank Sta=13.205,17.36
XS Rating Curve= 0 ,0
Exp/Cntr=0.3,0.1

Type RM Length L Ch R = 1 ,1810.68*,17.7,17.7,17.7
Node Last Edited Time=mars.08.2016 08:53:09
#Sta/Elev= 23 
       0 442.193   2.023 441.566   3.385  441.03   3.582 440.964   5.181     441
   5.872 441.125   6.514  441.04   7.441 440.831   7.905 440.809   8.321 440.898
   9.279  441.22   9.346 441.235  13.383 441.095   13.73 440.713  14.427   440.3
  15.709 440.416  16.129 440.409  17.212 440.743   17.79 441.087  19.445 441.265
  19.882 441.406   21.18 441.817   22.39 442.088
#Mann= 3 , 0 , 0 
       0     .07       0  13.383    .035       0   17.79     .07       0
Levee=-1,0,442.1925,-1,22.39,442.0875,,
Bank Sta=13.383,17.79
XS Rating Curve= 0 ,0
Exp/Cntr=0.3,0.1

Type RM Length L Ch R = 1 ,1792.98 ,16.17,16.17,16.17
BEGIN DESCRIPTION:
800
END DESCRIPTION:
Node Last Edited Time=mars.08.2016 08:26:33
#Sta/Elev= 18 
       0  442.16    2.05  441.53    3.63  440.87    5.25  440.95    5.95  441.13
     6.6  441.03    7.54  440.77    8.01  440.75    9.47  441.19   13.56  441.04
   13.97  440.24   15.59  440.33   16.12   440.3   17.49  440.69   18.22  441.12
   19.67  441.18   21.19  441.74   22.25  441.98
#Mann= 3 , 0 , 0 
       0     .07       0   13.56    .035       0   18.22     .07       0
Levee=-1,0,442.16,-1,22.25,441.98,,
Bank Sta=13.56,18.22
XS Rating Curve= 0 ,0
Exp/Cntr=0.3,0.1

Type RM Length L Ch R = 1 ,1776.81*,16.17,16.17,16.17
Node Last Edited Time=mars.08.2016 08:53:13
#Sta/Elev= 24 
       0 442.105   1.878  441.53   2.898 441.126   3.325 440.974   4.809 441.013
    5.45 441.139   6.045 441.056   6.845 440.864   6.906  440.85   7.337 440.833
   8.674 441.158   12.42 441.033  12.875  440.24  13.243 440.245  13.458  440.24
  14.777 440.361  15.209 440.356  16.325 440.693   16.92  441.04  18.912 441.194
   18.98 441.211  20.962 441.605  20.999 441.616  22.455  441.94
#Mann= 3 , 0 , 0 
       0     .07       0   12.42    .035       0   16.92     .07       0
Levee=-1,0,442.105,-1,22.455,441.94,,
Bank Sta=12.42,16.92
XS Rating Curve= 0 ,0
Exp/Cntr=0.3,0.1

Type RM Length L Ch R = 1 ,1760.64*,16.17,16.17,16.17
Node Last Edited Time=mars.08.2016 08:53:13
#Sta/Elev= 24 
       0  442.05   1.705 441.531   2.632 441.187    3.02 441.078   4.367 441.077
    4.95 441.149    5.49 441.082   6.217 440.939   6.272  440.93   6.663 440.916
   7.878 441.127   11.28 441.025   11.78  440.24  12.515  440.25  12.945  440.24
  13.965 440.392  14.298 440.412  15.161 440.697   15.62  440.96  18.153 441.208
   18.24 441.224  20.762  441.48  20.808 441.492   22.66   441.9
#Mann= 3 , 0 , 0 
       0     .07       0   11.28    .035       0   15.62     .07       0
Levee=-1,0,442.05,-1,22.66,441.9,,
Bank Sta=11.28,15.62
XS Rating Curve= 0 ,0
Exp/Cntr=0.3,0.1

Type RM Length L Ch R = 1 ,1744.47*,16.17,16.17,16.17
Node Last Edited Time=mars.08.2016 08:53:13
#Sta/Elev= 24 
       0 441.995   1.533 441.531   2.366 441.249   2.714 441.182   3.926  441.14
   4.449 441.158   4.935 441.108   5.588 441.015   5.638 441.009    5.99     441
   7.082 441.095   10.14 441.018  10.685  440.24  11.788 440.255  12.432  440.24
  13.152 440.423  13.387 440.467  13.996   440.7   14.32  440.88  17.395 441.221
    17.5 441.237  20.561 441.355  20.617 441.368  22.865  441.86
#Mann= 3 , 0 , 0 
       0     .07       0   10.14    .035       0   14.32     .07       0
Levee=-1,0,441.995,-1,22.865,441.86,,
Bank Sta=10.14,14.32
XS Rating Curve= 0 ,0
Exp/Cntr=0.3,0.1

Type RM Length L Ch R = 1 ,1728.3  ,15.438,15.438,15.438
BEGIN DESCRIPTION:
900
END DESCRIPTION:
Node Last Edited Time=mars.08.2016 08:26:33
#Sta/Elev= 11 
       0  441.94     2.1  441.31    4.96  441.09       9  441.01    9.59  440.24
   11.06  440.26   11.92  440.24   13.02   440.8   16.76  441.25   20.36  441.23
   23.07  441.82
#Mann= 3 , 0 , 0 
       0     .07       0       9    .035       0   13.02     .07       0
Levee=-1,0,441.94,-1,23.07,441.82,,
Bank Sta=9,13.02
XS Rating Curve= 0 ,0
Exp/Cntr=0.3,0.1

Type RM Length L Ch R = 1 ,1712.86*,15.438,15.438,15.438
Node Last Edited Time=mars.08.2016 08:53:18
#Sta/Elev= 22 
       0 441.918   1.773 441.383   4.187 441.135   4.684 441.109   7.597 440.967
    7.74  440.76   8.015 440.532   8.533 440.095   9.635  440.11   10.28 440.095
   10.78 440.286  11.008 440.451  11.357 440.588  12.159 440.699  12.391 440.589
  12.824 440.667  12.858 440.777  16.481 441.152  16.564 441.152  19.969 441.173
  20.183 441.211  22.595 441.798
#Mann= 3 , 0 , 0 
       0     .07       0   7.597    .035       0  12.858     .07       0
Levee=-1,0,441.9175,-1,22.595,441.7975,,
Bank Sta=7.597,12.858
XS Rating Curve= 0 ,0
Exp/Cntr=0.3,0.1

Type RM Length L Ch R = 1 ,1697.42*,15.438,15.438,15.438
Node Last Edited Time=mars.08.2016 08:53:18
#Sta/Elev= 22 
       0 441.895   1.445 441.457   3.414  441.18   3.819 441.139   6.195 440.925
    6.39 440.626   6.767 440.398   7.475  439.95    8.21  439.96    8.64  439.95
   9.427 440.224   9.785 440.504  10.335 440.702  11.596 440.749   11.96 440.479
  12.643 440.541  12.695 440.755  16.202 441.053  16.283 441.055  19.579 441.116
  19.785 441.144   22.12 441.775
#Mann= 3 , 0 , 0 
       0     .07       0   6.195    .035       0  12.695     .07       0
Levee=-1,0,441.895,-1,22.12,441.775,,
Bank Sta=6.195,12.695
XS Rating Curve= 0 ,0
Exp/Cntr=0.3,0.1

Type RM Length L Ch R = 1 ,1681.98*,15.438,15.438,15.438
Node Last Edited Time=mars.08.2016 08:53:18
#Sta/Elev= 22 
       0 441.872   1.118 441.531   2.641 441.224   2.955  441.17   4.793 440.883
    5.04 440.493   5.518 440.264   6.418 439.805   6.785  439.81       7 439.805
   8.073 440.162   8.563 440.557   9.312 440.816  11.033   440.8   11.53  440.37
  12.461 440.416  12.533 440.732  15.924 440.955  16.001 440.957  19.188 441.058
  19.388 441.077  21.645 441.753
#Mann= 3 , 0 , 0 
       0     .07       0   4.793    .035       0  12.533     .07       0
Levee=-1,0,441.8725,-1,21.645,441.7525,,
Bank Sta=4.793,12.533
XS Rating Curve= 0 ,0
Exp/Cntr=0.3,0.1

Type RM Length L Ch R = 1 ,1666.55 ,15.5,15.5,15.5
BEGIN DESCRIPTION:
1000
END DESCRIPTION:
Node Last Edited Time=mars.08.2016 08:26:33
#Sta/Elev= 16 
       0  441.85    2.09   441.2    3.39  440.84    3.69  440.36    4.27  440.13
    5.36  439.66    6.72   440.1    7.34  440.61    8.29  440.93   10.47  440.85
    11.1  440.26   12.28  440.29   12.37  440.71   15.72  440.86   18.99  441.01
   21.17  441.73
#Mann= 3 , 0 , 0 
       0     .07       0    3.39    .035       0   12.37     .07       0
Levee=-1,0,441.85,-1,21.17,441.73,,
Bank Sta=3.39,12.37
XS Rating Curve= 0 ,0
Exp/Cntr=0.3,0.1

Type RM Length L Ch R = 1 ,1651.05*,15.5,15.5,15.5
Node Last Edited Time=mars.08.2016 08:53:35
#Sta/Elev= 22 
       0   441.8   1.612 441.327   2.491 441.106    4.04  440.75   4.324 440.228
   4.413  440.15   4.873     440   5.905 439.638    6.99 439.971   7.485 440.356
   8.243 440.598   9.411 440.562   9.982 440.599  10.484 440.205  11.426  440.32
  11.497 440.642  14.566 440.864  15.176 440.871  18.384 440.908  18.766 440.944
  19.709 441.215   21.16 441.675
#Mann= 3 , 0 , 0 
       0     .07       0    4.04    .035       0  11.497     .07       0
Levee=-1,0,441.8,-1,21.16,441.675,,
Bank Sta=4.04,11.497
XS Rating Curve= 0 ,0
Exp/Cntr=0.3,0.1

Type RM Length L Ch R = 1 ,1635.55*,15.5,15.5,15.5
Node Last Edited Time=mars.08.2016 08:53:35
#Sta/Elev= 22 
       0  441.75   1.871 441.225   2.891 441.012    4.69  440.66   4.958 440.096
   5.042 439.976   5.476 439.871    6.45 439.615    7.26 439.843   7.629 440.101
   8.195 440.267   9.067 440.248   9.493 440.347   9.869 440.151  10.571 440.351
  10.625 440.575  13.967 440.893  14.632 440.881  18.126 440.822  18.543 440.878
  19.569 441.137   21.15  441.62
#Mann= 3 , 0 , 0 
       0     .07       0    4.69    .035       0  10.625     .07       0
Levee=-1,0,441.75,-1,21.15,441.62,,
Bank Sta=4.69,10.625
XS Rating Curve= 0 ,0
Exp/Cntr=0.3,0.1

Type RM Length L Ch R = 1 ,1620.05*,15.5,15.5,15.5
Node Last Edited Time=mars.08.2016 08:53:35
#Sta/Elev= 22 
       0   441.7   2.131 441.122   3.292 440.918    5.34  440.57   5.592 439.965
   5.671 439.803   6.079 439.741   6.995 439.592    7.53 439.714   7.774 439.847
   8.148 439.935   8.724 439.934   9.005 440.096   9.253 440.096   9.717 440.381
   9.753 440.508  13.369 440.921  14.088 440.892  17.868 440.736  18.319 440.811
   19.43 441.058   21.14 441.565
#Mann= 3 , 0 , 0 
       0     .07       0    5.34    .035       0   9.753     .07       0
Levee=-1,0,441.7,-1,21.14,441.565,,
Bank Sta=5.34,9.753
XS Rating Curve= 0 ,0
Exp/Cntr=0.3,0.1

Type RM Length L Ch R = 1 ,1604.55 ,17.095,17.095,17.095
BEGIN DESCRIPTION:
1100
END DESCRIPTION:
Node Last Edited Time=mars.08.2016 08:26:33
#Sta/Elev= 11 
       0  441.65    2.39  441.02    5.99  440.48     6.3  439.63    7.54  439.57
    8.38  439.62    8.88  440.44   12.77  440.95   17.61  440.65   19.29  440.98
   21.13  441.51
#Mann= 3 , 0 , 0 
       0     .07       0    5.99    .035       0    8.88     .07       0
Levee=-1,0,441.65,-1,21.13,441.51,,
Bank Sta=5.99,8.88
XS Rating Curve= 0 ,0
Exp/Cntr=0.3,0.1

Type RM Length L Ch R = 1 ,1587.45*,17.095,17.095,17.095
Node Last Edited Time=mars.08.2016 08:53:46
#Sta/Elev= 17 
       0  441.59   2.095 440.959   2.568 440.873   6.435  440.47   6.829 439.783
   6.859 439.727   6.967 439.687   7.605 439.583   8.552  439.55   9.051 439.709
   9.341  439.73    9.81 440.357  13.343 440.811  16.428 440.715  17.738 440.706
  19.264 441.022  20.935 441.495
#Mann= 3 , 0 , 0 
       0     .07       0   6.435    .035       0    9.81     .07       0
Levee=-1,0,441.59,-1,20.935,441.495,,
Bank Sta=6.435,9.81
XS Rating Curve= 0 ,0
Exp/Cntr=0.3,0.1

Type RM Length L Ch R = 1 ,1570.36*,17.095,17.095,17.095
Node Last Edited Time=mars.08.2016 08:53:46
#Sta/Elev= 17 
       0  441.53    2.24 440.783   2.745 440.726    6.88  440.46   7.379 439.875
   7.417 439.824   7.555 439.748   8.363 439.562   9.565  439.53   10.03 439.816
  10.302  439.84   10.74 440.275  13.916 440.671  16.688  440.69  17.867 440.763
  19.238 441.065   20.74  441.48
#Mann= 3 , 0 , 0 
       0     .07       0    6.88    .035       0   10.74     .07       0
Levee=-1,0,441.53,-1,20.74,441.48,,
Bank Sta=6.88,10.74
XS Rating Curve= 0 ,0
Exp/Cntr=0.3,0.1

Type RM Length L Ch R = 1 ,1553.26*,17.095,17.095,17.095
Node Last Edited Time=mars.08.2016 08:53:46
#Sta/Elev= 17 
       0  441.47   2.385 440.606   2.923 440.578   7.325  440.45    7.93 439.968
   7.976 439.922   8.142 439.809   9.122 439.541  10.578  439.51   11.01 439.923
  11.262  439.95   11.67 440.193  14.488 440.532  16.949 440.665  17.995 440.819
  19.212 441.107  20.545 441.465
#Mann= 3 , 0 , 0 
       0     .07       0   7.325    .035       0   11.67     .07       0
Levee=-1,0,441.47,-1,20.545,441.465,,
Bank Sta=7.325,11.67
XS Rating Curve= 0 ,0
Exp/Cntr=0.3,0.1

Type RM Length L Ch R = 1 ,1536.17 ,19.48,19.48,19.48
BEGIN DESCRIPTION:
1200
END DESCRIPTION:
Node Last Edited Time=mars.08.2016 08:26:33
#Sta/Elev= 11 
       0  441.41    2.53  440.43    7.77  440.44    8.48  440.06    8.73  439.87
    9.88  439.52   11.59  439.49   11.99  440.03    12.6  440.11   17.21  440.64
   20.35  441.45
#Mann= 3 , 0 , 0 
       0     .07       0    7.77    .035       0    12.6     .07       0
Levee=-1,0,441.41,-1,20.35,441.45,,
Bank Sta=7.77,12.6
XS Rating Curve= 0 ,0
Exp/Cntr=0.3,0.1

Type RM Length L Ch R = 1 ,1516.69*,19.48,19.48,19.48
Node Last Edited Time=mars.08.2016 08:53:50
#Sta/Elev= 16 
       0  441.38   2.255 440.616    2.96 440.405   3.541 440.361    9.09 440.407
   9.713 440.063   9.933 439.904  10.351 439.747  10.942  439.58  12.443 439.483
  13.008 439.864   13.27  439.89   13.87 440.203  17.409 440.565  17.875 440.644
  20.603 441.403
#Mann= 3 , 0 , 0 
       0     .07       0    9.09    .035       0   13.87     .07       0
Levee=-1,0,441.38,-1,20.60333,441.4034,,
Bank Sta=9.09,13.87
XS Rating Curve= 0 ,0
Exp/Cntr=0.3,0.1

Type RM Length L Ch R = 1 ,1497.21*,19.48,19.48,19.48
Node Last Edited Time=mars.08.2016 08:53:50
#Sta/Elev= 16 
       0  441.35   2.583 440.568    3.39  440.38   4.056  440.29   10.41 440.373
  10.947 440.065  11.135 439.938  11.495 439.768  12.004  439.64  13.297 439.477
  14.027 439.698  14.365 439.725   15.14 440.297  18.144 440.553   18.54 440.648
  20.857 441.357
#Mann= 3 , 0 , 0 
       0     .07       0   10.41    .035       0   15.14     .07       0
Levee=-1,0,441.35,-1,20.85667,441.3567,,
Bank Sta=10.41,15.14
XS Rating Curve= 0 ,0
Exp/Cntr=0.3,0.1

Type RM Length L Ch R = 1 ,1477.73 ,16.387,16.387,16.387
BEGIN DESCRIPTION:
1300
END DESCRIPTION:
Node Last Edited Time=mars.08.2016 08:26:33
#Sta/Elev= 10 
       0  441.32    2.91  440.52    4.57  440.22   11.73  440.34   12.64  439.79
   14.15  439.47   15.46  439.56   16.41  440.39   18.88  440.54   21.11  441.31
#Mann= 3 , 0 , 0 
       0     .07       0   11.73    .035       0   16.41     .07       0
Levee=-1,0,441.32,-1,21.11,441.31,,
Bank Sta=11.73,16.41
XS Rating Curve= 0 ,0
Exp/Cntr=0.3,0.1

Type RM Length L Ch R = 1 ,1461.34*,16.387,16.387,16.387
Node Last Edited Time=mars.08.2016 08:53:57
#Sta/Elev= 19 
       0 441.237   2.608 440.486    2.62 440.483   4.114 440.276   4.651  440.28
   6.449 440.172   10.56 440.253  10.867  439.98  11.405 439.694  12.807 439.343
  13.767 439.575   13.92 439.613  14.634 440.243  14.727 440.304  15.463  440.27
  17.079  440.43  17.948 440.473  19.397 440.756  20.857 441.267
#Mann= 3 , 0 , 0 
       0     .07       0   10.56    .035       0  14.727     .07       0
Levee=-1,0,441.2367,-1,20.85667,441.2667,,
Bank Sta=10.56,14.727
XS Rating Curve= 0 ,0
Exp/Cntr=0.3,0.1

Type RM Length L Ch R = 1 ,1444.95*,16.387,16.387,16.387
Node Last Edited Time=mars.08.2016 08:53:57
#Sta/Elev= 19 
       0 441.153   2.319 440.448   2.329 440.447   3.658 440.332   4.135  440.33
   5.735 440.081    9.39 440.167   9.674  439.82   10.17 439.598  11.463 439.217
  12.253 439.603  12.379 439.667  12.967 440.191  13.043 440.217  13.952 440.115
  15.945  440.36  17.016 440.406  18.804 440.588  20.603 441.223
#Mann= 3 , 0 , 0 
       0     .07       0    9.39    .035       0  13.043     .07       0
Levee=-1,0,441.1534,-1,20.60333,441.2233,,
Bank Sta=9.39,13.043
XS Rating Curve= 0 ,0
Exp/Cntr=0.3,0.1

Type RM Length L Ch R = 1 ,1428.57 ,15.113,15.113,15.113
BEGIN DESCRIPTION:
1400
END DESCRIPTION:
Node Last Edited Time=mars.08.2016 08:26:33
#Sta/Elev= 14 
       0  441.07    2.03  440.41    3.62  440.38    5.02  439.99    8.22  440.08
    8.48  439.66   10.12  439.09   10.74  439.63    11.3  440.14   11.36 440.131
   12.44  439.96   14.81  440.29   18.21  440.42   20.35  441.18
#Mann= 3 , 0 , 0 
       0     .07       0    8.22    .035       0   11.36     .07       0
Levee=-1,0,441.07,-1,20.35,441.18,,
Bank Sta=8.22,11.36
XS Rating Curve= 0 ,0
Exp/Cntr=0.3,0.1

Type RM Length L Ch R = 1 ,1413.46*,15.113,15.113,15.113
Node Last Edited Time=mars.08.2016 08:54:02
#Sta/Elev= 19 
       0 441.092   1.987 440.435   2.011 440.432   3.543 440.351   4.913 440.005
   5.242     440   8.045  440.12   8.269 439.755    9.68 439.013  10.382 439.358
   10.71  439.51  11.471 439.875   11.64 440.036   11.74 440.083  12.769 439.968
  14.639 440.197  15.028 440.255  18.268 440.475  20.308 441.122
#Mann= 3 , 0 , 0 
       0     .07       0   8.045    .035       0   11.74     .07       0
Levee=-1,0,441.0925,-1,20.3075,441.1225,,
Bank Sta=8.045,11.74
XS Rating Curve= 0 ,0
Exp/Cntr=0.3,0.1

Type RM Length L Ch R = 1 ,1398.35*,15.113,15.113,15.113
Node Last Edited Time=mars.08.2016 08:54:02
#Sta/Elev= 19 
       0 441.115   1.944 440.459   1.967 440.455   3.466 440.321   4.806  440.02
   5.128     440    7.87  440.16   8.057  439.85    9.24 438.935  10.221 439.259
   10.68  439.39  11.744 439.704  11.981 439.932   12.12 440.036  13.098 439.977
  14.876 440.162  15.246  440.22  18.326  440.53  20.265 441.065
#Mann= 3 , 0 , 0 
       0     .07       0    7.87    .035       0   12.12     .07       0
Levee=-1,0,441.115,-1,20.265,441.065,,
Bank Sta=7.87,12.12
XS Rating Curve= 0 ,0
Exp/Cntr=0.3,0.1

Type RM Length L Ch R = 1 ,1383.24*,15.112,15.112,15.112
Node Last Edited Time=mars.08.2016 08:54:02
#Sta/Elev= 19 
       0 441.138     1.9 440.484   1.924 440.477   3.389 440.292   4.699 440.036
   5.014     440   7.695   440.2   7.846 439.945     8.8 438.857  10.061 439.159
   10.65  439.27  12.017 439.532  12.321 439.829    12.5 439.988  13.428 439.985
  15.113 440.126  15.464 440.184  18.384 440.585  20.222 441.008
#Mann= 3 , 0 , 0 
       0     .07       0   7.695    .035       0    12.5     .07       0
Levee=-1,0,441.1375,-1,20.2225,441.0075,,
Bank Sta=7.695,12.5
XS Rating Curve= 0 ,0
Exp/Cntr=0.3,0.1

Type RM Length L Ch R = 1 ,1368.13 ,18.817,18.817,18.817
BEGIN DESCRIPTION:
1500
END DESCRIPTION:
Node Last Edited Time=mars.08.2016 08:26:33
#Sta/Elev= 10 
       0  441.16    1.88   440.5     4.9     440    7.52  440.24    8.36  438.78
     9.9  439.06   12.29  439.36   12.88  439.94   15.35  440.09   20.18  440.95
#Mann= 3 , 0 , 0 
       0     .07       0    7.52    .035       0   12.88     .07       0
Levee=-1,0,441.16,-1,20.18,440.95,,
Bank Sta=7.52,12.88
XS Rating Curve= 0 ,0
Exp/Cntr=0.3,0.1

Type RM Length L Ch R = 1 ,1349.31*,18.817,18.817,18.817
Node Last Edited Time=mars.08.2016 08:54:07
#Sta/Elev= 17 
       0 441.135   1.757 440.535   2.123 440.436   4.138 440.136   5.534 439.962
   8.493   440.1   8.638 439.764    9.48 438.812   9.964 438.898  10.926 439.084
  10.994 439.094  11.243 439.172  13.171 439.441  13.725 439.897  15.989 440.012
   16.13 440.033  20.417 440.945
#Mann= 3 , 0 , 0 
       0    .078       0   8.493    .034       0  13.725    .078       0
Levee=-1,0,441.135,-1,20.4175,440.945,,
Bank Sta=8.493,13.725
XS Rating Curve= 0 ,0
Exp/Cntr=0.3,0.1

Type RM Length L Ch R = 1 ,1330.49*,18.817,18.817,18.817
Node Last Edited Time=mars.08.2016 08:54:07
#Sta/Elev= 17 
       0  441.11   1.958 440.457   2.366 440.372   4.612 440.067   6.167 439.925
   9.465  439.96   9.632 439.503    10.6 438.845  11.053 438.922  11.953 439.108